%nprocshared=8
%mem=10GB
%chk=4cpp_s.chk
# ub3lyp/6-31g(d) guess=mix

Title Card Required

0 1
 C                 -2.89494900   -0.00000100    1.34877400
 C                 -2.58256800    1.12062300    0.32159700
 C                 -3.30471700    0.77704800   -0.98018200
 C                 -3.30454600   -0.77709000   -0.98016500
 C                 -2.58242200   -1.12050900    0.32169000
 C                 -1.52817200    2.05587800    0.33403800
 C                  1.16374600    3.07705800    0.08121700
 C                 -1.04824400    2.67512100   -0.88502500
 C                 -0.72710000    2.41226200    1.48294800
 C                  0.55064100    2.89424300    1.36020000
 C                  0.23647900    3.13953600   -1.00604900
 H                 -1.67908800    2.69940600   -1.76556600
 H                 -1.11247600    2.25056100    2.47831500
 H                  1.13398800    3.03457400    2.26522100
 H                  0.57231700    3.47413200   -1.98343100
 C                 -1.52804500   -2.05579100    0.33423200
 C                  1.16383600   -3.07699700    0.08137600
 C                 -1.04826900   -2.67542000   -0.88471400
 C                 -0.72686100   -2.41187700    1.48315200
 C                  0.55089200   -2.89382100    1.36038200
 C                  0.23644000   -3.13983700   -1.00576800
 H                 -1.67928400   -2.70007000   -1.76512400
 H                 -1.11215500   -2.24988800    2.47849400
 H                  1.13442400   -3.03372800    2.26534700
 H                  0.57215900   -3.47487400   -1.98304200
 C                 -2.06633200    0.00020900    2.64413500
 H                 -2.33214900    0.87412300    3.24701200
 H                 -0.98895300    0.00047200    2.48255200
 H                 -2.33169700   -0.87379700    3.24708800
 C                 -4.36739200   -0.00008700    1.84806000
 H                 -4.54408500    0.88801400    2.46767300
 H                 -4.54376100   -0.88776800    2.46838500
 H                 -5.11346800   -0.00059600    1.05902900
 C                  2.56895400    2.81893700   -0.11515200
 C                  4.45378700    0.72540500   -0.39354100
 C                  3.07660700    2.46376900   -1.40257900
 C                  3.42105700    2.45564300    0.97377900
 C                  4.34258300    1.44331800    0.83744500
 C                  3.99559200    1.44712400   -1.53787500
 H                  2.61267700    2.86050000   -2.30028200
 H                  3.24494200    2.86573100    1.96369400
 H                  4.84890300    1.08230000    1.72766600
 H                  4.21498800    1.08179500   -2.53655800
 C                  2.56901500   -2.81891900   -0.11515900
 C                  4.45383200   -0.72538200   -0.39360200
 C                  3.07643100   -2.46357000   -1.40263100
 C                  3.42137500   -2.45583600    0.97366200
 C                  4.34287700   -1.44350300    0.83730000
 C                  3.99541300   -1.44692900   -1.53795300
 H                  2.61223500   -2.86006800   -2.30029700
 H                  3.24553800   -2.86620900    1.96351200
 H                  4.84952300   -1.08271700    1.72743500
 H                  4.21454700   -1.08140300   -2.53662100
 H                 -2.71348200   -1.10457900   -1.83532100
 H                 -2.71391200    1.10466600   -1.83546800
 C                 -4.77215400   -1.23289800   -1.21985000
 H                 -4.82319600   -2.11814700   -1.86387400
 H                 -5.27144700   -1.50203700   -0.28498100
 C                 -4.77242500    1.23257800   -1.21962900
 H                 -4.82375500    2.11798800   -1.86340600
 H                 -5.27172900    1.50129300   -0.28465900
 C                 -5.43984200   -0.00017300   -1.87429300
 H                 -6.53104900   -0.00030200   -1.77059000
 H                 -5.22368500   -0.00005700   -2.95111200

